$DATA1 SOURCE='HSPICE' VERSION='D-2010.03 32-BIT'
.TITLE '** hspice file to run the simulation'
 fin              max_r            max_tr           max_ac            
                  gain_r           gain_tr          gain_ac           
                  temper           alter#            
    1.0000         2.707e-04        6.643e-03        9.132e-03        
                     0.1354           3.3213           4.5660         
                    25.0000           1.0000         
    1.1220         2.705e-04        6.637e-03        9.188e-03        
                     0.1353           3.3186           4.5940         
                    25.0000           1.0000         
    1.2589         2.715e-04        6.658e-03        9.651e-03        
                     0.1357           3.3288           4.8257         
                    25.0000           1.0000         
    1.4125         2.716e-04        6.625e-03        9.612e-03        
                     0.1358           3.3127           4.8062         
                    25.0000           1.0000         
    1.5849         2.718e-04        6.608e-03        9.572e-03        
                     0.1359           3.3041           4.7862         
                    25.0000           1.0000         
    1.7783         2.720e-04        6.585e-03        9.513e-03        
                     0.1360           3.2923           4.7563         
                    25.0000           1.0000         
    1.9953         2.723e-04        6.552e-03        9.418e-03        
                     0.1362           3.2759           4.7088         
                    25.0000           1.0000         
    2.2387         2.725e-04        6.511e-03        9.312e-03        
                     0.1362           3.2554           4.6560         
                    25.0000           1.0000         
    2.5119         2.726e-04        6.460e-03        9.302e-03        
                     0.1363           3.2302           4.6510         
                    25.0000           1.0000         
    2.8184         2.728e-04        6.403e-03        9.235e-03        
                     0.1364           3.2014           4.6175         
                    25.0000           1.0000         
    3.1623         2.730e-04        6.379e-03        9.142e-03        
                     0.1365           3.1894           4.5712         
                    25.0000           1.0000         
    3.5481         2.732e-04        6.348e-03        9.050e-03        
                     0.1366           3.1739           4.5251         
                    25.0000           1.0000         
    3.9811         2.734e-04        6.290e-03        8.914e-03        
                     0.1367           3.1448           4.4571         
                    25.0000           1.0000         
    4.4668         2.736e-04        6.221e-03        8.861e-03        
                     0.1368           3.1107           4.4306         
                    25.0000           1.0000         
    5.0119         2.738e-04        6.146e-03        8.743e-03        
                     0.1369           3.0730           4.3716         
                    25.0000           1.0000         
    5.6234         2.740e-04        6.125e-03        8.582e-03        
                     0.1370           3.0625           4.2912         
                    25.0000           1.0000         
    6.3096         2.742e-04        6.101e-03        8.383e-03        
                     0.1371           3.0506           4.1916         
                    25.0000           1.0000         
    7.0795         2.744e-04        6.018e-03        8.177e-03        
                     0.1372           3.0088           4.0887         
                    25.0000           1.0000         
    7.9433         2.745e-04        5.924e-03        7.926e-03        
                     0.1373           2.9622           3.9631         
                    25.0000           1.0000         
    8.9125         2.746e-04        5.801e-03        7.630e-03        
                     0.1373           2.9004           3.8152         
                    25.0000           1.0000         
   10.0000         2.746e-04        5.647e-03        7.294e-03        
                     0.1373           2.8234           3.6472         
                    25.0000           1.0000         
   11.2202         2.746e-04        5.457e-03        6.906e-03        
                     0.1373           2.7284           3.4530         
                    25.0000           1.0000         
   12.5893         2.748e-04        5.229e-03        6.504e-03        
                     0.1374           2.6145           3.2520         
                    25.0000           1.0000         
   14.1254         2.745e-04        4.994e-03        6.162e-03        
                     0.1372           2.4971           3.0810         
                    25.0000           1.0000         
   15.8489         2.757e-04        4.737e-03        5.896e-03        
                     0.1378           2.3683           2.9482         
                    25.0000           1.0000         
   17.7828         2.815e-04        4.516e-03        5.603e-03        
                     0.1408           2.2581           2.8016         
                    25.0000           1.0000         
   19.9526         2.878e-04        4.351e-03        5.368e-03        
                     0.1439           2.1754           2.6839         
                    25.0000           1.0000         
   22.3872         2.947e-04        4.160e-03        5.181e-03        
                     0.1474           2.0802           2.5904         
                    25.0000           1.0000         
   25.1189         3.022e-04        4.075e-03        4.964e-03        
                     0.1511           2.0376           2.4820         
                    25.0000           1.0000         
   28.1838         3.102e-04        3.969e-03        4.724e-03        
                     0.1551           1.9845           2.3618         
                    25.0000           1.0000         
   31.6228         3.187e-04        3.834e-03        4.462e-03        
                     0.1594           1.9168           2.2310         
                    25.0000           1.0000         
   35.4813         3.278e-04        3.902e-03        4.428e-03        
                     0.1639           1.9510           2.2140         
                    25.0000           1.0000         
   39.8107         3.375e-04        3.501e-03        3.919e-03        
                     0.1687           1.7506           1.9597         
                    25.0000           1.0000         
   44.6684         3.475e-04        3.322e-03        3.655e-03        
                     0.1738           1.6611           1.8273         
                    25.0000           1.0000         
   50.1187         3.578e-04        3.135e-03        3.460e-03        
                     0.1789           1.5674           1.7298         
                    25.0000           1.0000         
   56.2341         3.683e-04        3.009e-03        3.306e-03        
                     0.1842           1.5043           1.6528         
                    25.0000           1.0000         
   63.0957         3.788e-04        2.913e-03        3.148e-03        
                     0.1894           1.4565           1.5742         
                    25.0000           1.0000         
   70.7946         3.973e-04        2.808e-03        3.010e-03        
                     0.1986           1.4039           1.5048         
                    25.0000           1.0000         
   79.4328         4.613e-04        2.724e-03        2.933e-03        
                     0.2306           1.3619           1.4665         
                    25.0000           1.0000         
   89.1251         4.840e-04        2.686e-03        2.851e-03        
                     0.2420           1.3428           1.4255         
                    25.0000           1.0000         
  100.0000         5.323e-04        2.629e-03        2.755e-03        
                     0.2661           1.3143           1.3777         
                    25.0000           1.0000         
